/var/folders/3g/ssls5xnd04j53z04wfdyd3940000gn/T/tmputnqxluy.pdb
 OpenBabel03222609033D

 57 60  0  0  1  0  0  0  0  0999 V2000
  -12.5510  -44.8120   27.8100 C   0  0  0  0  0  0  0  0  0  0  0  0
  -13.4420  -45.3490   28.9420 C   0  0  0  0  0  0  0  0  0  0  0  0
  -12.6020  -46.0490   30.0120 C   0  0  0  0  0  0  0  0  0  0  0  0
  -11.6800  -45.1230   30.6920 N   0  0  0  0  0  0  0  0  0  0  0  0
  -11.2590  -43.9960   29.8520 C   0  0  0  0  0  0  0  0  0  0  0  0
  -11.1910  -44.3360   28.3630 C   0  0  0  0  0  0  0  0  0  0  0  0
  -12.3340  -45.6430   27.1230 H   0  0  0  0  0  0  0  0  0  0  0  0
  -14.0060  -44.5340   29.4100 H   0  0  0  0  0  0  0  0  0  0  0  0
  -14.1750  -46.0540   28.5330 H   0  0  0  0  0  0  0  0  0  0  0  0
  -12.0560  -46.8720   29.5310 H   0  0  0  0  0  0  0  0  0  0  0  0
  -13.2760  -46.4940   30.7520 H   0  0  0  0  0  0  0  0  0  0  0  0
  -10.2970  -43.5860   30.1820 H   0  0  0  0  0  0  0  0  0  0  0  0
  -11.9810  -43.1810   29.9930 H   0  0  0  0  0  0  0  0  0  0  0  0
  -10.4480  -45.1320   28.2170 H   0  0  0  0  0  0  0  0  0  0  0  0
  -10.8160  -43.4700   27.8050 H   0  0  0  0  0  0  0  0  0  0  0  0
  -13.2370  -43.7040   26.9790 C   0  0  0  0  0  0  0  0  0  0  0  0
  -12.5530  -43.4470   26.1600 H   0  0  0  0  0  0  0  0  0  0  0  0
  -13.3480  -42.7990   27.5900 H   0  0  0  0  0  0  0  0  0  0  0  0
  -17.9410  -42.1460   23.6300 C   0  0  0  0  0  0  0  0  0  0  0  0
  -16.6780  -42.7550   23.5480 C   0  0  0  0  0  0  0  0  0  0  0  0
  -16.0430  -43.1350   24.7210 C   0  0  0  0  0  0  0  0  0  0  0  0
  -16.6540  -42.9050   25.9410 C   0  0  0  0  0  0  0  0  0  0  0  0
  -17.8930  -42.3040   26.0680 C   0  0  0  0  0  0  0  0  0  0  0  0
  -18.5500  -41.9180   24.8960 C   0  0  0  0  0  0  0  0  0  0  0  0
  -15.7820  -43.4040   26.9960 C   0  0  0  0  0  0  0  0  0  0  0  0
  -16.0390  -43.2780   28.1800 O   0  0  0  0  0  0  0  0  0  0  0  0
  -14.5880  -44.1190   26.3760 C   0  0  1  0  0  0  0  0  0  0  0  0
  -14.6900  -43.7510   24.8710 C   0  0  0  0  0  0  0  0  0  0  0  0
  -16.1830  -42.9300   22.6000 H   0  0  0  0  0  0  0  0  0  0  0  0
  -18.3070  -42.1570   27.0580 H   0  0  0  0  0  0  0  0  0  0  0  0
  -14.7560  -45.1980   26.4840 H   0  0  0  0  0  0  0  0  0  0  0  0
  -13.9280  -43.0250   24.5700 H   0  0  0  0  0  0  0  0  0  0  0  0
  -14.5910  -44.6480   24.2500 H   0  0  0  0  0  0  0  0  0  0  0  0
  -19.7840  -41.3150   24.8670 O   0  0  0  0  0  0  0  0  0  0  0  0
  -20.4950  -41.2150   26.0930 C   0  0  0  0  0  0  0  0  0  0  0  0
  -20.9090  -40.2090   26.2290 H   0  0  0  0  0  0  0  0  0  0  0  0
  -19.7850  -41.3940   26.9060 H   0  0  0  0  0  0  0  0  0  0  0  0
  -21.2780  -41.9780   26.1610 H   0  0  0  0  0  0  0  0  0  0  0  0
  -18.6660  -41.7290   22.5390 O   0  0  0  0  0  0  0  0  0  0  0  0
  -18.2470  -40.5440   21.8790 C   0  0  0  0  0  0  0  0  0  0  0  0
  -17.2960  -40.7550   21.3830 H   0  0  0  0  0  0  0  0  0  0  0  0
  -18.9650  -40.2470   21.1060 H   0  0  0  0  0  0  0  0  0  0  0  0
  -18.0760  -39.7320   22.5930 H   0  0  0  0  0  0  0  0  0  0  0  0
  -10.5310  -45.8310   31.2800 C   0  0  0  0  0  0  0  0  0  0  0  0
  -10.0070  -46.4010   30.5020 H   0  0  0  0  0  0  0  0  0  0  0  0
  -10.8740  -46.5650   32.0200 H   0  0  0  0  0  0  0  0  0  0  0  0
   -9.4960  -44.9100   31.8930 C   0  0  0  0  0  0  0  0  0  0  0  0
   -9.8870  -43.7880   32.6380 C   0  0  0  0  0  0  0  0  0  0  0  0
   -8.9290  -42.9500   33.2130 C   0  0  0  0  0  0  0  0  0  0  0  0
   -7.5720  -43.2260   33.0520 C   0  0  0  0  0  0  0  0  0  0  0  0
   -7.1700  -44.3400   32.3160 C   0  0  0  0  0  0  0  0  0  0  0  0
   -8.1260  -45.1780   31.7420 C   0  0  0  0  0  0  0  0  0  0  0  0
  -10.9410  -43.5580   32.7730 H   0  0  0  0  0  0  0  0  0  0  0  0
   -9.2410  -42.0820   33.7870 H   0  0  0  0  0  0  0  0  0  0  0  0
   -6.8270  -42.5730   33.4980 H   0  0  0  0  0  0  0  0  0  0  0  0
   -6.1130  -44.5540   32.1850 H   0  0  0  0  0  0  0  0  0  0  0  0
   -7.8060  -46.0400   31.1600 H   0  0  0  0  0  0  0  0  0  0  0  0
  1  6  1  0  0  0  0
  1  2  1  0  0  0  0
  2  8  1  0  0  0  0
  2  3  1  0  0  0  0
  3  4  1  0  0  0  0
  3 11  1  0  0  0  0
  4 44  1  0  0  0  0
  5 13  1  0  0  0  0
  5 12  1  0  0  0  0
  5  4  1  0  0  0  0
  6  5  1  0  0  0  0
  7  1  1  0  0  0  0
  9  2  1  0  0  0  0
 10  3  1  0  0  0  0
 14  6  1  0  0  0  0
 15  6  1  0  0  0  0
 16 18  1  0  0  0  0
 16  1  1  0  0  0  0
 17 16  1  0  0  0  0
 19 24  1  0  0  0  0
 20 19  2  0  0  0  0
 20 21  1  0  0  0  0
 21 28  1  0  0  0  0
 21 22  2  0  0  0  0
 22 23  1  0  0  0  0
 22 25  1  0  0  0  0
 23 30  1  0  0  0  0
 24 23  2  0  0  0  0
 25 26  2  0  0  0  0
 27 31  1  1  0  0  0
 27 16  1  0  0  0  0
 27 25  1  0  0  0  0
 28 27  1  0  0  0  0
 29 20  1  0  0  0  0
 32 28  1  0  0  0  0
 33 28  1  0  0  0  0
 34 24  1  0  0  0  0
 34 35  1  0  0  0  0
 35 38  1  0  0  0  0
 35 36  1  0  0  0  0
 35 37  1  0  0  0  0
 39 19  1  0  0  0  0
 40 39  1  0  0  0  0
 40 43  1  0  0  0  0
 41 40  1  0  0  0  0
 42 40  1  0  0  0  0
 44 47  1  0  0  0  0
 44 46  1  0  0  0  0
 45 44  1  0  0  0  0
 47 48  1  0  0  0  0
 48 53  1  0  0  0  0
 48 49  2  0  0  0  0
 49 54  1  0  0  0  0
 50 49  1  0  0  0  0
 50 55  1  0  0  0  0
 51 50  2  0  0  0  0
 52 47  2  0  0  0  0
 52 51  1  0  0  0  0
 56 51  1  0  0  0  0
 57 52  1  0  0  0  0
M  END
>  <MODEL>
2

>  <REMARK>
 VINA RESULT:     -10.8      1.243      2.554
  Name = /var/folders/3g/ssls5xnd04j53z04wfdyd3940000gn/T/tmputnqxluy.pdb
  8 active torsions:
  status: ('A' for Active; 'I' for Inactive)
    1  A    between atoms: C1_1  and  O1_2
    2  A    between atoms: O1_2  and  C2_3
    3  A    between atoms: C7_8  and  O2_9
    4  A    between atoms: O2_9  and  C8_10
    5  A    between atoms: C10_13  and  C11_14
    6  A    between atoms: C11_14  and  C12_15
    7  A    between atoms: N1_18  and  C15_19
    8  A    between atoms: C15_19  and  C16_20
                            x       y       z     vdW  Elec       q    Type
                         _______ _______ _______ _____ _____    ______ ____

>  <TORSDO>
F 8

$$$$
