/var/folders/3g/ssls5xnd04j53z04wfdyd3940000gn/T/tmputnqxluy.pdb
 OpenBabel03222609033D

 57 60  0  0  1  0  0  0  0  0999 V2000
  -13.6490  -43.3010   26.9920 C   0  0  0  0  0  0  0  0  0  0  0  0
  -12.1240  -43.1540   27.1240 C   0  0  0  0  0  0  0  0  0  0  0  0
  -11.5950  -43.9850   28.2930 C   0  0  0  0  0  0  0  0  0  0  0  0
  -11.7970  -45.4300   28.0890 N   0  0  0  0  0  0  0  0  0  0  0  0
  -12.9620  -45.7430   27.2530 C   0  0  0  0  0  0  0  0  0  0  0  0
  -14.0970  -44.7270   27.3790 C   0  0  0  0  0  0  0  0  0  0  0  0
  -14.1220  -42.6200   27.7140 H   0  0  0  0  0  0  0  0  0  0  0  0
  -11.6230  -43.4770   26.2030 H   0  0  0  0  0  0  0  0  0  0  0  0
  -11.8660  -42.0990   27.2770 H   0  0  0  0  0  0  0  0  0  0  0  0
  -12.0930  -43.6400   29.2090 H   0  0  0  0  0  0  0  0  0  0  0  0
  -10.5240  -43.7850   28.4100 H   0  0  0  0  0  0  0  0  0  0  0  0
  -13.3430  -46.7510   27.4560 H   0  0  0  0  0  0  0  0  0  0  0  0
  -12.6290  -45.7710   26.2060 H   0  0  0  0  0  0  0  0  0  0  0  0
  -14.4490  -44.7190   28.4190 H   0  0  0  0  0  0  0  0  0  0  0  0
  -14.9520  -45.0530   26.7750 H   0  0  0  0  0  0  0  0  0  0  0  0
  -14.1710  -42.9110   25.5910 C   0  0  0  0  0  0  0  0  0  0  0  0
  -13.4720  -43.3340   24.8580 H   0  0  0  0  0  0  0  0  0  0  0  0
  -14.1300  -41.8210   25.4700 H   0  0  0  0  0  0  0  0  0  0  0  0
  -19.5140  -41.8290   23.1290 C   0  0  0  0  0  0  0  0  0  0  0  0
  -18.2520  -42.3710   22.8380 C   0  0  0  0  0  0  0  0  0  0  0  0
  -17.3840  -42.6420   23.8860 C   0  0  0  0  0  0  0  0  0  0  0  0
  -17.7680  -42.3690   25.1870 C   0  0  0  0  0  0  0  0  0  0  0  0
  -18.9980  -41.8300   25.5180 C   0  0  0  0  0  0  0  0  0  0  0  0
  -19.8870  -41.5560   24.4750 C   0  0  0  0  0  0  0  0  0  0  0  0
  -16.6810  -42.7520   26.0790 C   0  0  0  0  0  0  0  0  0  0  0  0
  -16.7190  -42.5650   27.2820 O   0  0  0  0  0  0  0  0  0  0  0  0
  -15.5810  -43.4370   25.2800 C   0  0  1  0  0  0  0  0  0  0  0  0
  -15.9890  -43.1720   23.8050 C   0  0  0  0  0  0  0  0  0  0  0  0
  -17.9340  -42.5790   21.8240 H   0  0  0  0  0  0  0  0  0  0  0  0
  -19.2260  -41.6440   26.5600 H   0  0  0  0  0  0  0  0  0  0  0  0
  -15.6540  -44.5140   25.4730 H   0  0  0  0  0  0  0  0  0  0  0  0
  -15.3460  -42.4240   23.3260 H   0  0  0  0  0  0  0  0  0  0  0  0
  -15.9490  -44.0990   23.2240 H   0  0  0  0  0  0  0  0  0  0  0  0
  -21.1420  -41.0250   24.6530 O   0  0  0  0  0  0  0  0  0  0  0  0
  -21.5840  -40.8130   25.9870 C   0  0  0  0  0  0  0  0  0  0  0  0
  -21.4450  -39.7690   26.2880 H   0  0  0  0  0  0  0  0  0  0  0  0
  -20.9680  -41.4330   26.6450 H   0  0  0  0  0  0  0  0  0  0  0  0
  -22.6250  -41.1270   26.1140 H   0  0  0  0  0  0  0  0  0  0  0  0
  -20.4580  -41.5230   22.1780 O   0  0  0  0  0  0  0  0  0  0  0  0
  -20.0800  -40.6430   21.1300 C   0  0  0  0  0  0  0  0  0  0  0  0
  -20.8720  -39.8980   21.0150 H   0  0  0  0  0  0  0  0  0  0  0  0
  -19.1550  -40.1090   21.3760 H   0  0  0  0  0  0  0  0  0  0  0  0
  -19.9870  -41.1770   20.1780 H   0  0  0  0  0  0  0  0  0  0  0  0
  -11.8230  -46.1640   29.3650 C   0  0  0  0  0  0  0  0  0  0  0  0
  -11.8030  -47.2450   29.1740 H   0  0  0  0  0  0  0  0  0  0  0  0
  -12.7600  -45.9640   29.9010 H   0  0  0  0  0  0  0  0  0  0  0  0
  -10.6340  -45.8740   30.2600 C   0  0  0  0  0  0  0  0  0  0  0  0
  -10.7350  -44.9450   31.3050 C   0  0  0  0  0  0  0  0  0  0  0  0
   -9.6400  -44.6920   32.1350 C   0  0  0  0  0  0  0  0  0  0  0  0
   -8.4370  -45.3660   31.9310 C   0  0  0  0  0  0  0  0  0  0  0  0
   -8.3260  -46.2950   30.8970 C   0  0  0  0  0  0  0  0  0  0  0  0
   -9.4190  -46.5480   30.0670 C   0  0  0  0  0  0  0  0  0  0  0  0
  -11.6650  -44.4100   31.4780 H   0  0  0  0  0  0  0  0  0  0  0  0
   -9.7260  -43.9690   32.9410 H   0  0  0  0  0  0  0  0  0  0  0  0
   -7.5860  -45.1680   32.5760 H   0  0  0  0  0  0  0  0  0  0  0  0
   -7.3880  -46.8180   30.7330 H   0  0  0  0  0  0  0  0  0  0  0  0
   -9.3220  -47.2670   29.2560 H   0  0  0  0  0  0  0  0  0  0  0  0
  1  2  1  0  0  0  0
  1  6  1  0  0  0  0
  1  7  1  0  0  0  0
  2  9  1  0  0  0  0
  2  3  1  0  0  0  0
  3 11  1  0  0  0  0
  3 10  1  0  0  0  0
  4  3  1  0  0  0  0
  4 44  1  0  0  0  0
  5  6  1  0  0  0  0
  5 12  1  0  0  0  0
  5  4  1  0  0  0  0
  6 14  1  0  0  0  0
  8  2  1  0  0  0  0
 13  5  1  0  0  0  0
 15  6  1  0  0  0  0
 16  1  1  0  0  0  0
 17 16  1  0  0  0  0
 18 16  1  0  0  0  0
 19 24  1  0  0  0  0
 20 19  2  0  0  0  0
 20 21  1  0  0  0  0
 21 22  2  0  0  0  0
 22 23  1  0  0  0  0
 22 25  1  0  0  0  0
 23 30  1  0  0  0  0
 24 34  1  0  0  0  0
 24 23  2  0  0  0  0
 25 26  2  0  0  0  0
 27 31  1  1  0  0  0
 27 16  1  0  0  0  0
 27 25  1  0  0  0  0
 28 21  1  0  0  0  0
 28 27  1  0  0  0  0
 29 20  1  0  0  0  0
 32 28  1  0  0  0  0
 33 28  1  0  0  0  0
 34 35  1  0  0  0  0
 35 38  1  0  0  0  0
 35 36  1  0  0  0  0
 35 37  1  0  0  0  0
 39 19  1  0  0  0  0
 40 42  1  0  0  0  0
 40 39  1  0  0  0  0
 41 40  1  0  0  0  0
 43 40  1  0  0  0  0
 44 46  1  0  0  0  0
 44 47  1  0  0  0  0
 45 44  1  0  0  0  0
 47 48  1  0  0  0  0
 48 53  1  0  0  0  0
 48 49  2  0  0  0  0
 49 54  1  0  0  0  0
 50 49  1  0  0  0  0
 50 55  1  0  0  0  0
 51 50  2  0  0  0  0
 52 47  2  0  0  0  0
 52 51  1  0  0  0  0
 56 51  1  0  0  0  0
 57 52  1  0  0  0  0
M  END
>  <MODEL>
5

>  <REMARK>
 VINA RESULT:     -10.3      1.380      2.738
  Name = /var/folders/3g/ssls5xnd04j53z04wfdyd3940000gn/T/tmputnqxluy.pdb
  8 active torsions:
  status: ('A' for Active; 'I' for Inactive)
    1  A    between atoms: C1_1  and  O1_2
    2  A    between atoms: O1_2  and  C2_3
    3  A    between atoms: C7_8  and  O2_9
    4  A    between atoms: O2_9  and  C8_10
    5  A    between atoms: C10_13  and  C11_14
    6  A    between atoms: C11_14  and  C12_15
    7  A    between atoms: N1_18  and  C15_19
    8  A    between atoms: C15_19  and  C16_20
                            x       y       z     vdW  Elec       q    Type
                         _______ _______ _______ _____ _____    ______ ____

>  <TORSDO>
F 8

$$$$
