/var/folders/3g/ssls5xnd04j53z04wfdyd3940000gn/T/tmputnqxluy.pdb
 OpenBabel03222609033D

 57 60  0  0  1  0  0  0  0  0999 V2000
  -13.2730  -44.6610   27.9970 C   0  0  0  0  0  0  0  0  0  0  0  0
  -11.9770  -43.8360   28.0570 C   0  0  0  0  0  0  0  0  0  0  0  0
  -11.1730  -44.1720   29.3130 C   0  0  0  0  0  0  0  0  0  0  0  0
  -10.7060  -45.5690   29.3200 N   0  0  0  0  0  0  0  0  0  0  0  0
  -11.5810  -46.4810   28.5750 C   0  0  0  0  0  0  0  0  0  0  0  0
  -13.0530  -46.0690   28.5950 C   0  0  0  0  0  0  0  0  0  0  0  0
  -14.0220  -44.1680   28.6320 H   0  0  0  0  0  0  0  0  0  0  0  0
  -11.3550  -44.0280   27.1750 H   0  0  0  0  0  0  0  0  0  0  0  0
  -12.2200  -42.7670   28.0520 H   0  0  0  0  0  0  0  0  0  0  0  0
  -11.8030  -43.9600   30.1870 H   0  0  0  0  0  0  0  0  0  0  0  0
  -10.3070  -43.5030   29.3650 H   0  0  0  0  0  0  0  0  0  0  0  0
  -11.4820  -47.5140   28.9310 H   0  0  0  0  0  0  0  0  0  0  0  0
  -11.2370  -46.5040   27.5320 H   0  0  0  0  0  0  0  0  0  0  0  0
  -13.4060  -46.0720   29.6350 H   0  0  0  0  0  0  0  0  0  0  0  0
  -13.6540  -46.8210   28.0710 H   0  0  0  0  0  0  0  0  0  0  0  0
  -13.8680  -44.7450   26.5730 C   0  0  0  0  0  0  0  0  0  0  0  0
  -14.6100  -45.5540   26.5820 H   0  0  0  0  0  0  0  0  0  0  0  0
  -13.0870  -45.0450   25.8630 H   0  0  0  0  0  0  0  0  0  0  0  0
  -19.0120  -41.9550   25.3380 C   0  0  0  0  0  0  0  0  0  0  0  0
  -18.0970  -42.1770   26.3800 C   0  0  0  0  0  0  0  0  0  0  0  0
  -16.8550  -42.7140   26.0740 C   0  0  0  0  0  0  0  0  0  0  0  0
  -16.5430  -43.0260   24.7630 C   0  0  0  0  0  0  0  0  0  0  0  0
  -17.4150  -42.8300   23.7080 C   0  0  0  0  0  0  0  0  0  0  0  0
  -18.6700  -42.2860   23.9960 C   0  0  0  0  0  0  0  0  0  0  0  0
  -15.1880  -43.5610   24.7250 C   0  0  0  0  0  0  0  0  0  0  0  0
  -14.6720  -43.9780   23.7030 O   0  0  0  0  0  0  0  0  0  0  0  0
  -14.5580  -43.4540   26.1060 C   0  0  1  0  0  0  0  0  0  0  0  0
  -15.7540  -43.0720   27.0200 C   0  0  0  0  0  0  0  0  0  0  0  0
  -18.3320  -41.9490   27.4120 H   0  0  0  0  0  0  0  0  0  0  0  0
  -17.0990  -43.0990   22.7070 H   0  0  0  0  0  0  0  0  0  0  0  0
  -13.8530  -42.6130   26.0850 H   0  0  0  0  0  0  0  0  0  0  0  0
  -16.0780  -43.9080   27.6490 H   0  0  0  0  0  0  0  0  0  0  0  0
  -15.4910  -42.2250   27.6610 H   0  0  0  0  0  0  0  0  0  0  0  0
  -19.6350  -42.0320   23.0520 O   0  0  0  0  0  0  0  0  0  0  0  0
  -19.3490  -41.0480   22.0680 C   0  0  0  0  0  0  0  0  0  0  0  0
  -19.7430  -41.3430   21.0880 H   0  0  0  0  0  0  0  0  0  0  0  0
  -18.2620  -40.9700   21.9790 H   0  0  0  0  0  0  0  0  0  0  0  0
  -19.7290  -40.0650   22.3680 H   0  0  0  0  0  0  0  0  0  0  0  0
  -20.2690  -41.4280   25.5170 O   0  0  0  0  0  0  0  0  0  0  0  0
  -20.7010  -41.1850   26.8470 C   0  0  0  0  0  0  0  0  0  0  0  0
  -20.5950  -40.1140   27.0440 H   0  0  0  0  0  0  0  0  0  0  0  0
  -21.7590  -41.4410   26.9720 H   0  0  0  0  0  0  0  0  0  0  0  0
  -20.0760  -41.7190   27.5710 H   0  0  0  0  0  0  0  0  0  0  0  0
  -10.4440  -46.0510   30.6870 C   0  0  0  0  0  0  0  0  0  0  0  0
  -10.1590  -47.1110   30.6600 H   0  0  0  0  0  0  0  0  0  0  0  0
  -11.3590  -45.9950   31.2920 H   0  0  0  0  0  0  0  0  0  0  0  0
   -9.3080  -45.3280   31.3820 C   0  0  0  0  0  0  0  0  0  0  0  0
   -7.9930  -45.8060   31.2900 C   0  0  0  0  0  0  0  0  0  0  0  0
   -6.9480  -45.1280   31.9210 C   0  0  0  0  0  0  0  0  0  0  0  0
   -7.2050  -43.9670   32.6480 C   0  0  0  0  0  0  0  0  0  0  0  0
   -8.5080  -43.4800   32.7450 C   0  0  0  0  0  0  0  0  0  0  0  0
   -9.5530  -44.1560   32.1140 C   0  0  0  0  0  0  0  0  0  0  0  0
   -7.7750  -46.7100   30.7280 H   0  0  0  0  0  0  0  0  0  0  0  0
   -5.9330  -45.5070   31.8470 H   0  0  0  0  0  0  0  0  0  0  0  0
   -6.3920  -43.4410   33.1400 H   0  0  0  0  0  0  0  0  0  0  0  0
   -8.7120  -42.5780   33.3140 H   0  0  0  0  0  0  0  0  0  0  0  0
  -10.5700  -43.7760   32.2010 H   0  0  0  0  0  0  0  0  0  0  0  0
  1  2  1  0  0  0  0
  1  6  1  0  0  0  0
  1  7  1  0  0  0  0
  2  3  1  0  0  0  0
  3  4  1  0  0  0  0
  3 11  1  0  0  0  0
  3 10  1  0  0  0  0
  4 44  1  0  0  0  0
  5  6  1  0  0  0  0
  5 12  1  0  0  0  0
  5  4  1  0  0  0  0
  6 14  1  0  0  0  0
  8  2  1  0  0  0  0
  9  2  1  0  0  0  0
 13  5  1  0  0  0  0
 15  6  1  0  0  0  0
 16 17  1  0  0  0  0
 16  1  1  0  0  0  0
 18 16  1  0  0  0  0
 19 39  1  0  0  0  0
 19 20  1  0  0  0  0
 20 29  1  0  0  0  0
 21 20  2  0  0  0  0
 21 28  1  0  0  0  0
 22 21  1  0  0  0  0
 23 24  1  0  0  0  0
 23 22  2  0  0  0  0
 24 19  2  0  0  0  0
 25 22  1  0  0  0  0
 25 27  1  0  0  0  0
 26 25  2  0  0  0  0
 27 31  1  1  0  0  0
 27 16  1  0  0  0  0
 27 28  1  0  0  0  0
 28 32  1  0  0  0  0
 28 33  1  0  0  0  0
 30 23  1  0  0  0  0
 34 24  1  0  0  0  0
 35 38  1  0  0  0  0
 35 34  1  0  0  0  0
 36 35  1  0  0  0  0
 37 35  1  0  0  0  0
 39 40  1  0  0  0  0
 40 42  1  0  0  0  0
 40 41  1  0  0  0  0
 40 43  1  0  0  0  0
 44 46  1  0  0  0  0
 44 47  1  0  0  0  0
 45 44  1  0  0  0  0
 47 52  1  0  0  0  0
 48 47  2  0  0  0  0
 48 49  1  0  0  0  0
 49 50  2  0  0  0  0
 50 51  1  0  0  0  0
 50 55  1  0  0  0  0
 51 56  1  0  0  0  0
 52 57  1  0  0  0  0
 52 51  2  0  0  0  0
 53 48  1  0  0  0  0
 54 49  1  0  0  0  0
M  END
>  <MODEL>
1

>  <REMARK>
 VINA RESULT:     -11.2      0.000      0.000
  Name = /var/folders/3g/ssls5xnd04j53z04wfdyd3940000gn/T/tmputnqxluy.pdb
  8 active torsions:
  status: ('A' for Active; 'I' for Inactive)
    1  A    between atoms: C1_1  and  O1_2
    2  A    between atoms: O1_2  and  C2_3
    3  A    between atoms: C7_8  and  O2_9
    4  A    between atoms: O2_9  and  C8_10
    5  A    between atoms: C10_13  and  C11_14
    6  A    between atoms: C11_14  and  C12_15
    7  A    between atoms: N1_18  and  C15_19
    8  A    between atoms: C15_19  and  C16_20
                            x       y       z     vdW  Elec       q    Type
                         _______ _______ _______ _____ _____    ______ ____

>  <TORSDO>
F 8

$$$$
