/var/folders/3g/ssls5xnd04j53z04wfdyd3940000gn/T/tmputnqxluy.pdb
 OpenBabel03222609033D

 57 60  0  0  1  0  0  0  0  0999 V2000
  -12.7620  -44.0690   27.2540 C   0  0  0  0  0  0  0  0  0  0  0  0
  -13.4930  -44.7220   28.4370 C   0  0  0  0  0  0  0  0  0  0  0  0
  -12.4970  -45.3280   29.4270 C   0  0  0  0  0  0  0  0  0  0  0  0
  -11.6430  -44.3060   30.0570 N   0  0  0  0  0  0  0  0  0  0  0  0
  -11.4250  -43.1260   29.2110 C   0  0  0  0  0  0  0  0  0  0  0  0
  -11.4300  -43.4370   27.7150 C   0  0  0  0  0  0  0  0  0  0  0  0
  -12.5000  -44.8590   26.5360 H   0  0  0  0  0  0  0  0  0  0  0  0
  -14.1140  -43.9870   28.9640 H   0  0  0  0  0  0  0  0  0  0  0  0
  -14.1660  -45.5060   28.0690 H   0  0  0  0  0  0  0  0  0  0  0  0
  -11.8950  -46.0730   28.8910 H   0  0  0  0  0  0  0  0  0  0  0  0
  -13.0550  -45.8600   30.2060 H   0  0  0  0  0  0  0  0  0  0  0  0
  -10.4970  -42.6060   29.4780 H   0  0  0  0  0  0  0  0  0  0  0  0
  -12.2270  -42.4060   29.4230 H   0  0  0  0  0  0  0  0  0  0  0  0
  -10.6110  -44.1370   27.4970 H   0  0  0  0  0  0  0  0  0  0  0  0
  -11.2050  -42.5270   27.1480 H   0  0  0  0  0  0  0  0  0  0  0  0
  -13.6370  -43.0410   26.5000 C   0  0  0  0  0  0  0  0  0  0  0  0
  -13.0750  -42.7360   25.6070 H   0  0  0  0  0  0  0  0  0  0  0  0
  -13.7630  -42.1410   27.1140 H   0  0  0  0  0  0  0  0  0  0  0  0
  -18.7340  -42.0400   23.5350 C   0  0  0  0  0  0  0  0  0  0  0  0
  -17.4410  -42.5620   23.3670 C   0  0  0  0  0  0  0  0  0  0  0  0
  -16.6740  -42.8200   24.4940 C   0  0  0  0  0  0  0  0  0  0  0  0
  -17.1850  -42.5540   25.7520 C   0  0  0  0  0  0  0  0  0  0  0  0
  -18.4490  -42.0340   25.9620 C   0  0  0  0  0  0  0  0  0  0  0  0
  -19.2390  -41.7720   24.8390 C   0  0  0  0  0  0  0  0  0  0  0  0
  -16.1840  -42.9210   26.7450 C   0  0  0  0  0  0  0  0  0  0  0  0
  -16.3400  -42.7360   27.9390 O   0  0  0  0  0  0  0  0  0  0  0  0
  -15.0020  -43.5880   26.0560 C   0  0  1  0  0  0  0  0  0  0  0  0
  -15.2700  -43.3290   24.5480 C   0  0  0  0  0  0  0  0  0  0  0  0
  -17.0240  -42.7640   22.3880 H   0  0  0  0  0  0  0  0  0  0  0  0
  -18.7800  -41.8520   26.9770 H   0  0  0  0  0  0  0  0  0  0  0  0
  -15.0770  -44.6670   26.2410 H   0  0  0  0  0  0  0  0  0  0  0  0
  -14.5960  -42.5710   24.1330 H   0  0  0  0  0  0  0  0  0  0  0  0
  -15.1600  -44.2550   23.9740 H   0  0  0  0  0  0  0  0  0  0  0  0
  -20.5130  -41.2610   24.8950 O   0  0  0  0  0  0  0  0  0  0  0  0
  -21.1170  -41.1390   26.1750 C   0  0  0  0  0  0  0  0  0  0  0  0
  -21.6110  -40.1680   26.2870 H   0  0  0  0  0  0  0  0  0  0  0  0
  -20.3230  -41.1970   26.9250 H   0  0  0  0  0  0  0  0  0  0  0  0
  -21.8130  -41.9630   26.3640 H   0  0  0  0  0  0  0  0  0  0  0  0
  -19.5860  -41.7470   22.4970 O   0  0  0  0  0  0  0  0  0  0  0  0
  -19.2210  -40.6940   21.6170 C   0  0  0  0  0  0  0  0  0  0  0  0
  -18.6110  -39.9820   22.1810 H   0  0  0  0  0  0  0  0  0  0  0  0
  -18.6130  -41.0670   20.7860 H   0  0  0  0  0  0  0  0  0  0  0  0
  -20.1040  -40.1580   21.2530 H   0  0  0  0  0  0  0  0  0  0  0  0
  -10.3760  -44.8760   30.5430 C   0  0  0  0  0  0  0  0  0  0  0  0
   -9.6280  -44.8610   29.7390 H   0  0  0  0  0  0  0  0  0  0  0  0
  -10.5130  -45.9310   30.8160 H   0  0  0  0  0  0  0  0  0  0  0  0
   -9.7650  -44.1090   31.6980 C   0  0  0  0  0  0  0  0  0  0  0  0
   -8.3730  -44.0380   31.8530 C   0  0  0  0  0  0  0  0  0  0  0  0
   -7.8150  -43.3180   32.9120 C   0  0  0  0  0  0  0  0  0  0  0  0
   -8.6400  -42.6610   33.8230 C   0  0  0  0  0  0  0  0  0  0  0  0
  -10.0250  -42.7210   33.6780 C   0  0  0  0  0  0  0  0  0  0  0  0
  -10.5840  -43.4400   32.6200 C   0  0  0  0  0  0  0  0  0  0  0  0
   -7.7150  -44.5450   31.1530 H   0  0  0  0  0  0  0  0  0  0  0  0
   -6.7350  -43.2700   33.0260 H   0  0  0  0  0  0  0  0  0  0  0  0
   -8.2050  -42.1030   34.6470 H   0  0  0  0  0  0  0  0  0  0  0  0
  -10.6700  -42.2140   34.3890 H   0  0  0  0  0  0  0  0  0  0  0  0
  -11.6670  -43.4910   32.5180 H   0  0  0  0  0  0  0  0  0  0  0  0
  1  6  1  0  0  0  0
  1  2  1  0  0  0  0
  2  8  1  0  0  0  0
  2  3  1  0  0  0  0
  3  4  1  0  0  0  0
  3 11  1  0  0  0  0
  4 44  1  0  0  0  0
  5 13  1  0  0  0  0
  5 12  1  0  0  0  0
  5  4  1  0  0  0  0
  6  5  1  0  0  0  0
  7  1  1  0  0  0  0
  9  2  1  0  0  0  0
 10  3  1  0  0  0  0
 14  6  1  0  0  0  0
 15  6  1  0  0  0  0
 16 18  1  0  0  0  0
 16  1  1  0  0  0  0
 17 16  1  0  0  0  0
 19 24  1  0  0  0  0
 20 19  2  0  0  0  0
 20 21  1  0  0  0  0
 21 28  1  0  0  0  0
 21 22  2  0  0  0  0
 22 23  1  0  0  0  0
 22 25  1  0  0  0  0
 23 30  1  0  0  0  0
 24 34  1  0  0  0  0
 24 23  2  0  0  0  0
 25 26  2  0  0  0  0
 27 31  1  1  0  0  0
 27 16  1  0  0  0  0
 27 25  1  0  0  0  0
 28 27  1  0  0  0  0
 29 20  1  0  0  0  0
 32 28  1  0  0  0  0
 33 28  1  0  0  0  0
 34 35  1  0  0  0  0
 35 36  1  0  0  0  0
 35 38  1  0  0  0  0
 35 37  1  0  0  0  0
 39 19  1  0  0  0  0
 40 41  1  0  0  0  0
 40 39  1  0  0  0  0
 42 40  1  0  0  0  0
 43 40  1  0  0  0  0
 44 46  1  0  0  0  0
 44 47  1  0  0  0  0
 45 44  1  0  0  0  0
 47 48  2  0  0  0  0
 47 52  1  0  0  0  0
 48 49  1  0  0  0  0
 49 54  1  0  0  0  0
 49 50  2  0  0  0  0
 50 55  1  0  0  0  0
 51 50  1  0  0  0  0
 51 56  1  0  0  0  0
 52 51  2  0  0  0  0
 53 48  1  0  0  0  0
 57 52  1  0  0  0  0
M  END
>  <MODEL>
4

>  <REMARK>
 VINA RESULT:     -10.4      1.329      2.548
  Name = /var/folders/3g/ssls5xnd04j53z04wfdyd3940000gn/T/tmputnqxluy.pdb
  8 active torsions:
  status: ('A' for Active; 'I' for Inactive)
    1  A    between atoms: C1_1  and  O1_2
    2  A    between atoms: O1_2  and  C2_3
    3  A    between atoms: C7_8  and  O2_9
    4  A    between atoms: O2_9  and  C8_10
    5  A    between atoms: C10_13  and  C11_14
    6  A    between atoms: C11_14  and  C12_15
    7  A    between atoms: N1_18  and  C15_19
    8  A    between atoms: C15_19  and  C16_20
                            x       y       z     vdW  Elec       q    Type
                         _______ _______ _______ _____ _____    ______ ____

>  <TORSDO>
F 8

$$$$
