/var/folders/3g/ssls5xnd04j53z04wfdyd3940000gn/T/tmputnqxluy.pdb
 OpenBabel03222609033D

 57 60  0  0  1  0  0  0  0  0999 V2000
  -10.5580  -45.7640   28.2940 C   0  0  0  0  0  0  0  0  0  0  0  0
  -10.9320  -44.3780   28.8420 C   0  0  0  0  0  0  0  0  0  0  0  0
  -11.9070  -43.6650   27.9040 C   0  0  0  0  0  0  0  0  0  0  0  0
  -13.1970  -44.3670   27.7990 N   0  0  0  0  0  0  0  0  0  0  0  0
  -13.0920  -45.8160   28.0110 C   0  0  0  0  0  0  0  0  0  0  0  0
  -11.7560  -46.4040   27.5600 C   0  0  0  0  0  0  0  0  0  0  0  0
   -9.7660  -45.6320   27.5430 H   0  0  0  0  0  0  0  0  0  0  0  0
  -11.3930  -44.4650   29.8340 H   0  0  0  0  0  0  0  0  0  0  0  0
  -10.0270  -43.7710   28.9620 H   0  0  0  0  0  0  0  0  0  0  0  0
  -11.4250  -43.5710   26.9220 H   0  0  0  0  0  0  0  0  0  0  0  0
  -12.0790  -42.6500   28.2800 H   0  0  0  0  0  0  0  0  0  0  0  0
  -13.9160  -46.3530   27.5270 H   0  0  0  0  0  0  0  0  0  0  0  0
  -13.2170  -46.0100   29.0850 H   0  0  0  0  0  0  0  0  0  0  0  0
  -11.6420  -46.2350   26.4800 H   0  0  0  0  0  0  0  0  0  0  0  0
  -11.7690  -47.4920   27.6920 H   0  0  0  0  0  0  0  0  0  0  0  0
   -9.9980  -46.7100   29.3820 C   0  0  0  0  0  0  0  0  0  0  0  0
   -8.9060  -46.5910   29.3800 H   0  0  0  0  0  0  0  0  0  0  0  0
  -10.2000  -47.7520   29.1050 H   0  0  0  0  0  0  0  0  0  0  0  0
  -12.5920  -42.7780   33.0680 C   0  0  0  0  0  0  0  0  0  0  0  0
  -12.8890  -43.8280   32.1850 C   0  0  0  0  0  0  0  0  0  0  0  0
  -11.8560  -44.6400   31.7410 C   0  0  0  0  0  0  0  0  0  0  0  0
  -10.5600  -44.3990   32.1630 C   0  0  0  0  0  0  0  0  0  0  0  0
  -10.2220  -43.3730   33.0260 C   0  0  0  0  0  0  0  0  0  0  0  0
  -11.2520  -42.5480   33.4880 C   0  0  0  0  0  0  0  0  0  0  0  0
   -9.6840  -45.3940   31.5570 C   0  0  0  0  0  0  0  0  0  0  0  0
   -8.4750  -45.3860   31.7050 O   0  0  0  0  0  0  0  0  0  0  0  0
  -10.5190  -46.4140   30.7960 C   0  0  1  0  0  0  0  0  0  0  0  0
  -11.9350  -45.7760   30.7730 C   0  0  0  0  0  0  0  0  0  0  0  0
  -13.8970  -44.0210   31.8370 H   0  0  0  0  0  0  0  0  0  0  0  0
   -9.1850  -43.2480   33.3130 H   0  0  0  0  0  0  0  0  0  0  0  0
  -10.5600  -47.3280   31.4030 H   0  0  0  0  0  0  0  0  0  0  0  0
  -12.1980  -45.3880   29.7830 H   0  0  0  0  0  0  0  0  0  0  0  0
  -12.6900  -46.5070   31.0800 H   0  0  0  0  0  0  0  0  0  0  0  0
  -11.0660  -41.4950   34.3510 O   0  0  0  0  0  0  0  0  0  0  0  0
   -9.9430  -41.5460   35.2200 C   0  0  0  0  0  0  0  0  0  0  0  0
   -9.1640  -40.8460   34.9000 H   0  0  0  0  0  0  0  0  0  0  0  0
   -9.5250  -42.5560   35.1660 H   0  0  0  0  0  0  0  0  0  0  0  0
  -10.2370  -41.3640   36.2590 H   0  0  0  0  0  0  0  0  0  0  0  0
  -13.5300  -41.9110   33.5770 O   0  0  0  0  0  0  0  0  0  0  0  0
  -14.8600  -42.0150   33.0900 C   0  0  0  0  0  0  0  0  0  0  0  0
  -15.4520  -41.2270   33.5640 H   0  0  0  0  0  0  0  0  0  0  0  0
  -14.8980  -41.8540   32.0080 H   0  0  0  0  0  0  0  0  0  0  0  0
  -15.3070  -42.9760   33.3640 H   0  0  0  0  0  0  0  0  0  0  0  0
  -13.8950  -44.0440   26.5440 C   0  0  0  0  0  0  0  0  0  0  0  0
  -14.0620  -44.9610   25.9640 H   0  0  0  0  0  0  0  0  0  0  0  0
  -13.2710  -43.3930   25.9180 H   0  0  0  0  0  0  0  0  0  0  0  0
  -15.2630  -43.4230   26.7490 C   0  0  0  0  0  0  0  0  0  0  0  0
  -16.0710  -43.0960   25.6510 C   0  0  0  0  0  0  0  0  0  0  0  0
  -17.3370  -42.5370   25.8450 C   0  0  0  0  0  0  0  0  0  0  0  0
  -17.8070  -42.3020   27.1370 C   0  0  0  0  0  0  0  0  0  0  0  0
  -17.0130  -42.6260   28.2360 C   0  0  0  0  0  0  0  0  0  0  0  0
  -15.7490  -43.1850   28.0430 C   0  0  0  0  0  0  0  0  0  0  0  0
  -15.7210  -43.2720   24.6380 H   0  0  0  0  0  0  0  0  0  0  0  0
  -17.9550  -42.2850   24.9890 H   0  0  0  0  0  0  0  0  0  0  0  0
  -18.7900  -41.8660   27.2870 H   0  0  0  0  0  0  0  0  0  0  0  0
  -17.3750  -42.4400   29.2430 H   0  0  0  0  0  0  0  0  0  0  0  0
  -15.1310  -43.4270   28.9060 H   0  0  0  0  0  0  0  0  0  0  0  0
  1  2  1  0  0  0  0
  1 16  1  0  0  0  0
  2  9  1  0  0  0  0
  2  8  1  0  0  0  0
  3 11  1  0  0  0  0
  3  2  1  0  0  0  0
  4  3  1  0  0  0  0
  4  5  1  0  0  0  0
  5 13  1  0  0  0  0
  6 15  1  0  0  0  0
  6  5  1  0  0  0  0
  6  1  1  0  0  0  0
  7  1  1  0  0  0  0
 10  3  1  0  0  0  0
 12  5  1  0  0  0  0
 14  6  1  0  0  0  0
 16 27  1  0  0  0  0
 17 16  1  0  0  0  0
 18 16  1  0  0  0  0
 19 24  1  0  0  0  0
 19 39  1  0  0  0  0
 20 19  2  0  0  0  0
 21 22  2  0  0  0  0
 21 20  1  0  0  0  0
 22 23  1  0  0  0  0
 23 30  1  0  0  0  0
 23 24  2  0  0  0  0
 24 34  1  0  0  0  0
 25 26  2  0  0  0  0
 25 22  1  0  0  0  0
 27 31  1  1  0  0  0
 27 25  1  0  0  0  0
 28 27  1  0  0  0  0
 28 33  1  0  0  0  0
 28 21  1  0  0  0  0
 29 20  1  0  0  0  0
 32 28  1  0  0  0  0
 34 35  1  0  0  0  0
 35 38  1  0  0  0  0
 36 35  1  0  0  0  0
 37 35  1  0  0  0  0
 40 43  1  0  0  0  0
 40 41  1  0  0  0  0
 40 39  1  0  0  0  0
 42 40  1  0  0  0  0
 44 47  1  0  0  0  0
 44  4  1  0  0  0  0
 45 44  1  0  0  0  0
 46 44  1  0  0  0  0
 47 52  1  0  0  0  0
 48 49  1  0  0  0  0
 48 47  2  0  0  0  0
 49 50  2  0  0  0  0
 50 55  1  0  0  0  0
 50 51  1  0  0  0  0
 51 56  1  0  0  0  0
 52 51  2  0  0  0  0
 52 57  1  0  0  0  0
 53 48  1  0  0  0  0
 54 49  1  0  0  0  0
M  END
>  <MODEL>
8

>  <REMARK>
 VINA RESULT:      -9.4      4.004      8.901
  Name = /var/folders/3g/ssls5xnd04j53z04wfdyd3940000gn/T/tmputnqxluy.pdb
  8 active torsions:
  status: ('A' for Active; 'I' for Inactive)
    1  A    between atoms: C1_1  and  O1_2
    2  A    between atoms: O1_2  and  C2_3
    3  A    between atoms: C7_8  and  O2_9
    4  A    between atoms: O2_9  and  C8_10
    5  A    between atoms: C10_13  and  C11_14
    6  A    between atoms: C11_14  and  C12_15
    7  A    between atoms: N1_18  and  C15_19
    8  A    between atoms: C15_19  and  C16_20
                            x       y       z     vdW  Elec       q    Type
                         _______ _______ _______ _____ _____    ______ ____

>  <TORSDO>
F 8

$$$$
