/var/folders/3g/ssls5xnd04j53z04wfdyd3940000gn/T/tmputnqxluy.pdb
 OpenBabel03222609033D

 57 60  0  0  1  0  0  0  0  0999 V2000
  -14.3070  -44.6480   26.9360 C   0  0  0  0  0  0  0  0  0  0  0  0
  -14.6820  -43.8350   28.1840 C   0  0  0  0  0  0  0  0  0  0  0  0
  -14.2190  -44.5440   29.4580 C   0  0  0  0  0  0  0  0  0  0  0  0
  -12.7520  -44.6550   29.5330 N   0  0  0  0  0  0  0  0  0  0  0  0
  -12.1030  -44.7110   28.2180 C   0  0  0  0  0  0  0  0  0  0  0  0
  -12.9600  -45.3750   27.1410 C   0  0  0  0  0  0  0  0  0  0  0  0
  -15.0650  -45.4320   26.7980 H   0  0  0  0  0  0  0  0  0  0  0  0
  -14.2280  -42.8370   28.1480 H   0  0  0  0  0  0  0  0  0  0  0  0
  -15.7690  -43.6910   28.2190 H   0  0  0  0  0  0  0  0  0  0  0  0
  -14.6940  -45.5330   29.4880 H   0  0  0  0  0  0  0  0  0  0  0  0
  -14.5820  -43.9810   30.3250 H   0  0  0  0  0  0  0  0  0  0  0  0
  -11.1260  -45.2070   28.2720 H   0  0  0  0  0  0  0  0  0  0  0  0
  -11.8820  -43.6810   27.9060 H   0  0  0  0  0  0  0  0  0  0  0  0
  -13.1580  -46.4140   27.4380 H   0  0  0  0  0  0  0  0  0  0  0  0
  -12.3940  -45.4340   26.2040 H   0  0  0  0  0  0  0  0  0  0  0  0
  -14.2930  -43.7980   25.6450 C   0  0  0  0  0  0  0  0  0  0  0  0
  -14.4580  -44.4860   24.8050 H   0  0  0  0  0  0  0  0  0  0  0  0
  -13.2970  -43.3600   25.5000 H   0  0  0  0  0  0  0  0  0  0  0  0
  -19.7880  -42.2260   23.8820 C   0  0  0  0  0  0  0  0  0  0  0  0
  -19.0920  -42.7820   24.9680 C   0  0  0  0  0  0  0  0  0  0  0  0
  -17.7070  -42.6990   24.9850 C   0  0  0  0  0  0  0  0  0  0  0  0
  -17.0400  -42.0850   23.9400 C   0  0  0  0  0  0  0  0  0  0  0  0
  -17.6860  -41.5300   22.8500 C   0  0  0  0  0  0  0  0  0  0  0  0
  -19.0810  -41.6000   22.8170 C   0  0  0  0  0  0  0  0  0  0  0  0
  -15.6100  -42.1300   24.2140 C   0  0  0  0  0  0  0  0  0  0  0  0
  -14.7740  -41.7160   23.4300 O   0  0  0  0  0  0  0  0  0  0  0  0
  -15.3740  -42.7070   25.6030 C   0  0  1  0  0  0  0  0  0  0  0  0
  -16.7700  -43.2550   26.0080 C   0  0  0  0  0  0  0  0  0  0  0  0
  -19.6000  -43.2760   25.7860 H   0  0  0  0  0  0  0  0  0  0  0  0
  -17.0950  -41.0650   22.0700 H   0  0  0  0  0  0  0  0  0  0  0  0
  -15.1220  -41.8720   26.2700 H   0  0  0  0  0  0  0  0  0  0  0  0
  -16.8090  -44.3490   25.9760 H   0  0  0  0  0  0  0  0  0  0  0  0
  -17.0370  -42.9190   27.0150 H   0  0  0  0  0  0  0  0  0  0  0  0
  -19.8550  -41.0900   21.8020 O   0  0  0  0  0  0  0  0  0  0  0  0
  -19.2420  -40.1750   20.9050 C   0  0  0  0  0  0  0  0  0  0  0  0
  -19.9040  -39.3290   20.6900 H   0  0  0  0  0  0  0  0  0  0  0  0
  -19.0600  -40.7020   19.9630 H   0  0  0  0  0  0  0  0  0  0  0  0
  -18.2740  -39.8340   21.2870 H   0  0  0  0  0  0  0  0  0  0  0  0
  -21.1570  -42.2450   23.7550 O   0  0  0  0  0  0  0  0  0  0  0  0
  -21.7840  -43.4980   23.5240 C   0  0  0  0  0  0  0  0  0  0  0  0
  -22.0550  -43.5460   22.4660 H   0  0  0  0  0  0  0  0  0  0  0  0
  -21.0970  -44.3270   23.7290 H   0  0  0  0  0  0  0  0  0  0  0  0
  -22.7050  -43.5930   24.1080 H   0  0  0  0  0  0  0  0  0  0  0  0
  -12.3320  -45.7670   30.4010 C   0  0  0  0  0  0  0  0  0  0  0  0
  -12.3690  -46.7110   29.8420 H   0  0  0  0  0  0  0  0  0  0  0  0
  -13.0310  -45.8800   31.2400 H   0  0  0  0  0  0  0  0  0  0  0  0
  -10.9110  -45.6390   30.9130 C   0  0  0  0  0  0  0  0  0  0  0  0
  -10.5220  -44.5270   31.6720 C   0  0  0  0  0  0  0  0  0  0  0  0
   -9.2150  -44.4200   32.1540 C   0  0  0  0  0  0  0  0  0  0  0  0
   -8.2860  -45.4250   31.8840 C   0  0  0  0  0  0  0  0  0  0  0  0
   -8.6620  -46.5370   31.1330 C   0  0  0  0  0  0  0  0  0  0  0  0
   -9.9680  -46.6450   30.6520 C   0  0  0  0  0  0  0  0  0  0  0  0
  -11.2330  -43.7340   31.8910 H   0  0  0  0  0  0  0  0  0  0  0  0
   -8.9210  -43.5530   32.7390 H   0  0  0  0  0  0  0  0  0  0  0  0
   -7.2700  -45.3400   32.2570 H   0  0  0  0  0  0  0  0  0  0  0  0
   -7.9400  -47.3190   30.9180 H   0  0  0  0  0  0  0  0  0  0  0  0
  -10.2520  -47.5110   30.0580 H   0  0  0  0  0  0  0  0  0  0  0  0
  1  6  1  0  0  0  0
  1  2  1  0  0  0  0
  2  9  1  0  0  0  0
  2  3  1  0  0  0  0
  3 10  1  0  0  0  0
  3  4  1  0  0  0  0
  3 11  1  0  0  0  0
  4 44  1  0  0  0  0
  5 12  1  0  0  0  0
  5  4  1  0  0  0  0
  6 14  1  0  0  0  0
  6  5  1  0  0  0  0
  7  1  1  0  0  0  0
  8  2  1  0  0  0  0
 13  5  1  0  0  0  0
 15  6  1  0  0  0  0
 16  1  1  0  0  0  0
 17 16  1  0  0  0  0
 18 16  1  0  0  0  0
 19 20  1  0  0  0  0
 20 21  2  0  0  0  0
 20 29  1  0  0  0  0
 21 28  1  0  0  0  0
 22 25  1  0  0  0  0
 22 21  1  0  0  0  0
 23 22  2  0  0  0  0
 24 23  1  0  0  0  0
 24 19  2  0  0  0  0
 25 27  1  0  0  0  0
 26 25  2  0  0  0  0
 27 16  1  0  0  0  0
 27 28  1  0  0  0  0
 27 31  1  1  0  0  0
 28 33  1  0  0  0  0
 30 23  1  0  0  0  0
 32 28  1  0  0  0  0
 34 24  1  0  0  0  0
 35 38  1  0  0  0  0
 35 34  1  0  0  0  0
 36 35  1  0  0  0  0
 37 35  1  0  0  0  0
 39 19  1  0  0  0  0
 40 42  1  0  0  0  0
 40 39  1  0  0  0  0
 40 43  1  0  0  0  0
 41 40  1  0  0  0  0
 44 47  1  0  0  0  0
 44 46  1  0  0  0  0
 45 44  1  0  0  0  0
 47 48  1  0  0  0  0
 48 53  1  0  0  0  0
 48 49  2  0  0  0  0
 49 54  1  0  0  0  0
 50 49  1  0  0  0  0
 50 55  1  0  0  0  0
 51 50  2  0  0  0  0
 52 47  2  0  0  0  0
 52 51  1  0  0  0  0
 56 51  1  0  0  0  0
 57 52  1  0  0  0  0
M  END
>  <MODEL>
7

>  <REMARK>
 VINA RESULT:      -9.7      1.451      2.149
  Name = /var/folders/3g/ssls5xnd04j53z04wfdyd3940000gn/T/tmputnqxluy.pdb
  8 active torsions:
  status: ('A' for Active; 'I' for Inactive)
    1  A    between atoms: C1_1  and  O1_2
    2  A    between atoms: O1_2  and  C2_3
    3  A    between atoms: C7_8  and  O2_9
    4  A    between atoms: O2_9  and  C8_10
    5  A    between atoms: C10_13  and  C11_14
    6  A    between atoms: C11_14  and  C12_15
    7  A    between atoms: N1_18  and  C15_19
    8  A    between atoms: C15_19  and  C16_20
                            x       y       z     vdW  Elec       q    Type
                         _______ _______ _______ _____ _____    ______ ____

>  <TORSDO>
F 8

$$$$
