/var/folders/3g/ssls5xnd04j53z04wfdyd3940000gn/T/tmputnqxluy.pdb
 OpenBabel03222609033D

 57 60  0  0  1  0  0  0  0  0999 V2000
  -13.2640  -44.6900   27.9870 C   0  0  0  0  0  0  0  0  0  0  0  0
  -12.0350  -43.7690   27.9220 C   0  0  0  0  0  0  0  0  0  0  0  0
  -11.0100  -44.1510   28.9900 C   0  0  0  0  0  0  0  0  0  0  0  0
  -10.4570  -45.5000   28.7780 N   0  0  0  0  0  0  0  0  0  0  0  0
  -11.3830  -46.4090   28.0930 C   0  0  0  0  0  0  0  0  0  0  0  0
  -12.8540  -46.1230   28.3930 C   0  0  0  0  0  0  0  0  0  0  0  0
  -13.9280  -44.3200   28.7820 H   0  0  0  0  0  0  0  0  0  0  0  0
  -11.5590  -43.8280   26.9360 H   0  0  0  0  0  0  0  0  0  0  0  0
  -12.3460  -42.7280   28.0670 H   0  0  0  0  0  0  0  0  0  0  0  0
  -11.4970  -44.0710   29.9720 H   0  0  0  0  0  0  0  0  0  0  0  0
  -10.1940  -43.4200   28.9720 H   0  0  0  0  0  0  0  0  0  0  0  0
  -11.1570  -47.4580   28.3200 H   0  0  0  0  0  0  0  0  0  0  0  0
  -11.2180  -46.3090   27.0120 H   0  0  0  0  0  0  0  0  0  0  0  0
  -13.0270  -46.2500   29.4700 H   0  0  0  0  0  0  0  0  0  0  0  0
  -13.4830  -46.8710   27.8980 H   0  0  0  0  0  0  0  0  0  0  0  0
  -14.0840  -44.6930   26.6760 C   0  0  0  0  0  0  0  0  0  0  0  0
  -14.8520  -45.4700   26.7800 H   0  0  0  0  0  0  0  0  0  0  0  0
  -13.4430  -44.9960   25.8390 H   0  0  0  0  0  0  0  0  0  0  0  0
  -19.2430  -41.7660   25.9080 C   0  0  0  0  0  0  0  0  0  0  0  0
  -18.2970  -42.1000   26.8900 C   0  0  0  0  0  0  0  0  0  0  0  0
  -17.0700  -42.6070   26.4900 C   0  0  0  0  0  0  0  0  0  0  0  0
  -16.8020  -42.7820   25.1440 C   0  0  0  0  0  0  0  0  0  0  0  0
  -17.7060  -42.4720   24.1440 C   0  0  0  0  0  0  0  0  0  0  0  0
  -18.9470  -41.9550   24.5290 C   0  0  0  0  0  0  0  0  0  0  0  0
  -15.4530  -43.3150   25.0060 C   0  0  0  0  0  0  0  0  0  0  0  0
  -14.9730  -43.6260   23.9300 O   0  0  0  0  0  0  0  0  0  0  0  0
  -14.7780  -43.3570   26.3700 C   0  0  1  0  0  0  0  0  0  0  0  0
  -15.9420  -43.0670   27.3570 C   0  0  0  0  0  0  0  0  0  0  0  0
  -18.4970  -41.9800   27.9480 H   0  0  0  0  0  0  0  0  0  0  0  0
  -17.4240  -42.6360   23.1110 H   0  0  0  0  0  0  0  0  0  0  0  0
  -14.0690  -42.5210   26.4140 H   0  0  0  0  0  0  0  0  0  0  0  0
  -16.2520  -43.9630   27.9060 H   0  0  0  0  0  0  0  0  0  0  0  0
  -15.6520  -42.2930   28.0750 H   0  0  0  0  0  0  0  0  0  0  0  0
  -19.9400  -41.5990   23.6480 O   0  0  0  0  0  0  0  0  0  0  0  0
  -19.6460  -41.6770   22.2600 C   0  0  0  0  0  0  0  0  0  0  0  0
  -19.2080  -40.7410   21.8960 H   0  0  0  0  0  0  0  0  0  0  0  0
  -20.5890  -41.8320   21.7270 H   0  0  0  0  0  0  0  0  0  0  0  0
  -18.9960  -42.5300   22.0400 H   0  0  0  0  0  0  0  0  0  0  0  0
  -20.4890  -41.2550   26.1820 O   0  0  0  0  0  0  0  0  0  0  0  0
  -21.4670  -42.1390   26.7090 C   0  0  0  0  0  0  0  0  0  0  0  0
  -20.9590  -43.0610   27.0070 H   0  0  0  0  0  0  0  0  0  0  0  0
  -21.9410  -41.7180   27.6010 H   0  0  0  0  0  0  0  0  0  0  0  0
  -22.2130  -42.4020   25.9510 H   0  0  0  0  0  0  0  0  0  0  0  0
   -9.9380  -46.0800   30.0270 C   0  0  0  0  0  0  0  0  0  0  0  0
   -9.0740  -46.7220   29.8100 H   0  0  0  0  0  0  0  0  0  0  0  0
  -10.6940  -46.7290   30.4880 H   0  0  0  0  0  0  0  0  0  0  0  0
   -9.4520  -45.0480   31.0250 C   0  0  0  0  0  0  0  0  0  0  0  0
  -10.3350  -44.4770   31.9520 C   0  0  0  0  0  0  0  0  0  0  0  0
   -9.8800  -43.5360   32.8780 C   0  0  0  0  0  0  0  0  0  0  0  0
   -8.5370  -43.1600   32.8890 C   0  0  0  0  0  0  0  0  0  0  0  0
   -7.6480  -43.7230   31.9750 C   0  0  0  0  0  0  0  0  0  0  0  0
   -8.1030  -44.6630   31.0490 C   0  0  0  0  0  0  0  0  0  0  0  0
  -11.3850  -44.7590   31.9570 H   0  0  0  0  0  0  0  0  0  0  0  0
  -10.5720  -43.0970   33.5910 H   0  0  0  0  0  0  0  0  0  0  0  0
   -8.1840  -42.4270   33.6090 H   0  0  0  0  0  0  0  0  0  0  0  0
   -6.6030  -43.4270   31.9790 H   0  0  0  0  0  0  0  0  0  0  0  0
   -7.4050  -45.0920   30.3320 H   0  0  0  0  0  0  0  0  0  0  0  0
  1  6  1  0  0  0  0
  1  7  1  0  0  0  0
  2  1  1  0  0  0  0
  2  9  1  0  0  0  0
  2  3  1  0  0  0  0
  3 10  1  0  0  0  0
  4  3  1  0  0  0  0
  4 44  1  0  0  0  0
  5 12  1  0  0  0  0
  5  6  1  0  0  0  0
  5  4  1  0  0  0  0
  6 14  1  0  0  0  0
  8  2  1  0  0  0  0
 11  3  1  0  0  0  0
 13  5  1  0  0  0  0
 15  6  1  0  0  0  0
 16 17  1  0  0  0  0
 16  1  1  0  0  0  0
 18 16  1  0  0  0  0
 19 39  1  0  0  0  0
 19 20  1  0  0  0  0
 20 29  1  0  0  0  0
 21 20  2  0  0  0  0
 21 28  1  0  0  0  0
 22 21  1  0  0  0  0
 23 24  1  0  0  0  0
 23 22  2  0  0  0  0
 24 19  2  0  0  0  0
 25 22  1  0  0  0  0
 25 27  1  0  0  0  0
 26 25  2  0  0  0  0
 27 31  1  1  0  0  0
 27 16  1  0  0  0  0
 27 28  1  0  0  0  0
 28 32  1  0  0  0  0
 28 33  1  0  0  0  0
 30 23  1  0  0  0  0
 34 24  1  0  0  0  0
 35 34  1  0  0  0  0
 36 35  1  0  0  0  0
 37 35  1  0  0  0  0
 38 35  1  0  0  0  0
 39 40  1  0  0  0  0
 40 41  1  0  0  0  0
 40 42  1  0  0  0  0
 43 40  1  0  0  0  0
 44 46  1  0  0  0  0
 44 47  1  0  0  0  0
 45 44  1  0  0  0  0
 47 52  2  0  0  0  0
 47 48  1  0  0  0  0
 48 53  1  0  0  0  0
 48 49  2  0  0  0  0
 49 50  1  0  0  0  0
 49 54  1  0  0  0  0
 50 55  1  0  0  0  0
 51 56  1  0  0  0  0
 51 50  2  0  0  0  0
 52 51  1  0  0  0  0
 57 52  1  0  0  0  0
M  END
>  <MODEL>
3

>  <REMARK>
 VINA RESULT:     -10.7      0.686      1.118
  Name = /var/folders/3g/ssls5xnd04j53z04wfdyd3940000gn/T/tmputnqxluy.pdb
  8 active torsions:
  status: ('A' for Active; 'I' for Inactive)
    1  A    between atoms: C1_1  and  O1_2
    2  A    between atoms: O1_2  and  C2_3
    3  A    between atoms: C7_8  and  O2_9
    4  A    between atoms: O2_9  and  C8_10
    5  A    between atoms: C10_13  and  C11_14
    6  A    between atoms: C11_14  and  C12_15
    7  A    between atoms: N1_18  and  C15_19
    8  A    between atoms: C15_19  and  C16_20
                            x       y       z     vdW  Elec       q    Type
                         _______ _______ _______ _____ _____    ______ ____

>  <TORSDO>
F 8

$$$$
