/var/folders/3g/ssls5xnd04j53z04wfdyd3940000gn/T/tmputnqxluy.pdb
 OpenBabel03222609033D

 57 60  0  0  1  0  0  0  0  0999 V2000
  -13.4430  -44.8240   28.7350 C   0  0  0  0  0  0  0  0  0  0  0  0
  -14.9110  -44.3680   28.7270 C   0  0  0  0  0  0  0  0  0  0  0  0
  -15.1510  -43.3230   27.6370 C   0  0  0  0  0  0  0  0  0  0  0  0
  -14.9390  -43.8660   26.2840 N   0  0  0  0  0  0  0  0  0  0  0  0
  -13.9640  -44.9620   26.2420 C   0  0  0  0  0  0  0  0  0  0  0  0
  -12.8680  -44.8460   27.3020 C   0  0  0  0  0  0  0  0  0  0  0  0
  -12.8570  -44.0800   29.2930 H   0  0  0  0  0  0  0  0  0  0  0  0
  -15.5800  -45.2200   28.5560 H   0  0  0  0  0  0  0  0  0  0  0  0
  -15.1720  -43.9460   29.7040 H   0  0  0  0  0  0  0  0  0  0  0  0
  -14.4870  -42.4700   27.8310 H   0  0  0  0  0  0  0  0  0  0  0  0
  -16.1810  -42.9580   27.7210 H   0  0  0  0  0  0  0  0  0  0  0  0
  -13.5090  -45.0570   25.2490 H   0  0  0  0  0  0  0  0  0  0  0  0
  -14.5060  -45.9040   26.3990 H   0  0  0  0  0  0  0  0  0  0  0  0
  -12.3070  -43.9180   27.1290 H   0  0  0  0  0  0  0  0  0  0  0  0
  -12.1460  -45.6610   27.1760 H   0  0  0  0  0  0  0  0  0  0  0  0
  -13.2390  -46.1840   29.4410 C   0  0  0  0  0  0  0  0  0  0  0  0
  -12.6560  -46.8160   28.7580 H   0  0  0  0  0  0  0  0  0  0  0  0
  -14.2090  -46.6800   29.5750 H   0  0  0  0  0  0  0  0  0  0  0  0
  -10.0610  -42.7830   33.1960 C   0  0  0  0  0  0  0  0  0  0  0  0
  -11.3760  -43.1840   32.9120 C   0  0  0  0  0  0  0  0  0  0  0  0
  -11.5770  -44.2500   32.0480 C   0  0  0  0  0  0  0  0  0  0  0  0
  -10.4900  -44.8910   31.4800 C   0  0  0  0  0  0  0  0  0  0  0  0
   -9.1790  -44.5250   31.7280 C   0  0  0  0  0  0  0  0  0  0  0  0
   -8.9580  -43.4550   32.6000 C   0  0  0  0  0  0  0  0  0  0  0  0
  -10.9800  -45.9680   30.6290 C   0  0  0  0  0  0  0  0  0  0  0  0
  -10.2420  -46.6620   29.9530 O   0  0  0  0  0  0  0  0  0  0  0  0
  -12.4900  -46.0890   30.7790 C   0  0  1  0  0  0  0  0  0  0  0  0
  -12.8780  -44.8120   31.5730 C   0  0  0  0  0  0  0  0  0  0  0  0
  -12.2370  -42.6840   33.3390 H   0  0  0  0  0  0  0  0  0  0  0  0
   -8.3800  -45.0750   31.2460 H   0  0  0  0  0  0  0  0  0  0  0  0
  -12.6910  -46.9650   31.4090 H   0  0  0  0  0  0  0  0  0  0  0  0
  -13.3820  -44.0710   30.9430 H   0  0  0  0  0  0  0  0  0  0  0  0
  -13.5310  -45.0670   32.4140 H   0  0  0  0  0  0  0  0  0  0  0  0
   -7.7130  -42.9850   32.9420 O   0  0  0  0  0  0  0  0  0  0  0  0
   -6.6260  -43.8980   32.8830 C   0  0  0  0  0  0  0  0  0  0  0  0
   -5.8490  -43.5440   32.1970 H   0  0  0  0  0  0  0  0  0  0  0  0
   -7.0080  -44.8460   32.4920 H   0  0  0  0  0  0  0  0  0  0  0  0
   -6.2170  -44.0910   33.8810 H   0  0  0  0  0  0  0  0  0  0  0  0
   -9.7390  -41.7430   34.0370 O   0  0  0  0  0  0  0  0  0  0  0  0
   -9.7140  -42.0040   35.4320 C   0  0  0  0  0  0  0  0  0  0  0  0
   -8.8410  -41.4950   35.8520 H   0  0  0  0  0  0  0  0  0  0  0  0
  -10.6040  -41.5980   35.9250 H   0  0  0  0  0  0  0  0  0  0  0  0
   -9.6030  -43.0740   35.6330 H   0  0  0  0  0  0  0  0  0  0  0  0
  -14.6200  -42.8070   25.3130 C   0  0  0  0  0  0  0  0  0  0  0  0
  -13.8410  -43.1570   24.6230 H   0  0  0  0  0  0  0  0  0  0  0  0
  -14.2030  -41.9310   25.8280 H   0  0  0  0  0  0  0  0  0  0  0  0
  -15.7940  -42.3980   24.4470 C   0  0  0  0  0  0  0  0  0  0  0  0
  -15.5910  -41.6970   23.2500 C   0  0  0  0  0  0  0  0  0  0  0  0
  -16.6760  -41.3340   22.4490 C   0  0  0  0  0  0  0  0  0  0  0  0
  -17.9730  -41.6720   22.8330 C   0  0  0  0  0  0  0  0  0  0  0  0
  -18.1880  -42.3720   24.0190 C   0  0  0  0  0  0  0  0  0  0  0  0
  -17.1040  -42.7350   24.8210 C   0  0  0  0  0  0  0  0  0  0  0  0
  -14.5870  -41.4250   22.9360 H   0  0  0  0  0  0  0  0  0  0  0  0
  -16.5090  -40.7890   21.5250 H   0  0  0  0  0  0  0  0  0  0  0  0
  -18.8160  -41.3880   22.2100 H   0  0  0  0  0  0  0  0  0  0  0  0
  -19.1980  -42.6320   24.3230 H   0  0  0  0  0  0  0  0  0  0  0  0
  -17.2800  -43.2730   25.7500 H   0  0  0  0  0  0  0  0  0  0  0  0
  1  7  1  0  0  0  0
  1 16  1  0  0  0  0
  2  1  1  0  0  0  0
  2  9  1  0  0  0  0
  3 11  1  0  0  0  0
  3 10  1  0  0  0  0
  3  2  1  0  0  0  0
  4  3  1  0  0  0  0
  5  4  1  0  0  0  0
  5 13  1  0  0  0  0
  5  6  1  0  0  0  0
  6  1  1  0  0  0  0
  8  2  1  0  0  0  0
 12  5  1  0  0  0  0
 14  6  1  0  0  0  0
 15  6  1  0  0  0  0
 16 18  1  0  0  0  0
 16 27  1  0  0  0  0
 17 16  1  0  0  0  0
 19 39  1  0  0  0  0
 20 19  1  0  0  0  0
 20 29  1  0  0  0  0
 21 20  2  0  0  0  0
 22 23  2  0  0  0  0
 22 21  1  0  0  0  0
 23 24  1  0  0  0  0
 24 34  1  0  0  0  0
 24 19  2  0  0  0  0
 25 27  1  0  0  0  0
 25 22  1  0  0  0  0
 26 25  2  0  0  0  0
 27 31  1  1  0  0  0
 27 28  1  0  0  0  0
 28 21  1  0  0  0  0
 28 33  1  0  0  0  0
 30 23  1  0  0  0  0
 32 28  1  0  0  0  0
 35 34  1  0  0  0  0
 35 38  1  0  0  0  0
 36 35  1  0  0  0  0
 37 35  1  0  0  0  0
 39 40  1  0  0  0  0
 40 43  1  0  0  0  0
 40 41  1  0  0  0  0
 40 42  1  0  0  0  0
 44 46  1  0  0  0  0
 44  4  1  0  0  0  0
 45 44  1  0  0  0  0
 47 52  1  0  0  0  0
 47 44  1  0  0  0  0
 48 47  2  0  0  0  0
 49 50  2  0  0  0  0
 49 48  1  0  0  0  0
 50 51  1  0  0  0  0
 51 56  1  0  0  0  0
 51 52  2  0  0  0  0
 52 57  1  0  0  0  0
 53 48  1  0  0  0  0
 54 49  1  0  0  0  0
 55 50  1  0  0  0  0
M  END
>  <MODEL>
6

>  <REMARK>
 VINA RESULT:     -10.1      4.020     10.114
  Name = /var/folders/3g/ssls5xnd04j53z04wfdyd3940000gn/T/tmputnqxluy.pdb
  8 active torsions:
  status: ('A' for Active; 'I' for Inactive)
    1  A    between atoms: C1_1  and  O1_2
    2  A    between atoms: O1_2  and  C2_3
    3  A    between atoms: C7_8  and  O2_9
    4  A    between atoms: O2_9  and  C8_10
    5  A    between atoms: C10_13  and  C11_14
    6  A    between atoms: C11_14  and  C12_15
    7  A    between atoms: N1_18  and  C15_19
    8  A    between atoms: C15_19  and  C16_20
                            x       y       z     vdW  Elec       q    Type
                         _______ _______ _______ _____ _____    ______ ____

>  <TORSDO>
F 8

$$$$
