/var/folders/3g/ssls5xnd04j53z04wfdyd3940000gn/T/tmputnqxluy.pdb
 OpenBabel03222609033D

 57 60  0  0  1  0  0  0  0  0999 V2000
  -15.8460  -43.4220   25.4740 C   0  0  0  0  0  0  0  0  0  0  0  0
  -15.5320  -43.0470   26.9310 C   0  0  0  0  0  0  0  0  0  0  0  0
  -14.8070  -44.1870   27.6450 C   0  0  0  0  0  0  0  0  0  0  0  0
  -13.4850  -44.4650   27.0560 N   0  0  0  0  0  0  0  0  0  0  0  0
  -13.4030  -44.1370   25.6280 C   0  0  0  0  0  0  0  0  0  0  0  0
  -14.7260  -44.3070   24.8840 C   0  0  0  0  0  0  0  0  0  0  0  0
  -16.7610  -44.0330   25.4680 H   0  0  0  0  0  0  0  0  0  0  0  0
  -14.9070  -42.1470   26.9730 H   0  0  0  0  0  0  0  0  0  0  0  0
  -16.4630  -42.8150   27.4620 H   0  0  0  0  0  0  0  0  0  0  0  0
  -15.4520  -45.0760   27.6100 H   0  0  0  0  0  0  0  0  0  0  0  0
  -14.6810  -43.9190   28.7000 H   0  0  0  0  0  0  0  0  0  0  0  0
  -12.6190  -44.7180   25.1270 H   0  0  0  0  0  0  0  0  0  0  0  0
  -13.0820  -43.0900   25.5400 H   0  0  0  0  0  0  0  0  0  0  0  0
  -15.0340  -45.3600   24.9480 H   0  0  0  0  0  0  0  0  0  0  0  0
  -14.5790  -44.1030   23.8180 H   0  0  0  0  0  0  0  0  0  0  0  0
  -16.1160  -42.1910   24.5800 C   0  0  0  0  0  0  0  0  0  0  0  0
  -15.2230  -42.0440   23.9580 H   0  0  0  0  0  0  0  0  0  0  0  0
  -16.2130  -41.2940   25.2050 H   0  0  0  0  0  0  0  0  0  0  0  0
  -20.5830  -39.4880   21.6630 C   0  0  0  0  0  0  0  0  0  0  0  0
  -19.2560  -39.9160   21.5000 C   0  0  0  0  0  0  0  0  0  0  0  0
  -18.7100  -40.7720   22.4450 C   0  0  0  0  0  0  0  0  0  0  0  0
  -19.4710  -41.1810   23.5260 C   0  0  0  0  0  0  0  0  0  0  0  0
  -20.7790  -40.7790   23.7280 C   0  0  0  0  0  0  0  0  0  0  0  0
  -21.3470  -39.9200   22.7830 C   0  0  0  0  0  0  0  0  0  0  0  0
  -18.6650  -42.0730   24.3490 C   0  0  0  0  0  0  0  0  0  0  0  0
  -19.0610  -42.5370   25.4030 O   0  0  0  0  0  0  0  0  0  0  0  0
  -17.3350  -42.3430   23.6580 C   0  0  1  0  0  0  0  0  0  0  0  0
  -17.3170  -41.3120   22.4960 C   0  0  0  0  0  0  0  0  0  0  0  0
  -18.6440  -39.5950   20.6660 H   0  0  0  0  0  0  0  0  0  0  0  0
  -21.3120  -41.1420   24.5980 H   0  0  0  0  0  0  0  0  0  0  0  0
  -17.3850  -43.3510   23.2280 H   0  0  0  0  0  0  0  0  0  0  0  0
  -16.6180  -40.4900   22.6840 H   0  0  0  0  0  0  0  0  0  0  0  0
  -17.0460  -41.8000   21.5540 H   0  0  0  0  0  0  0  0  0  0  0  0
  -22.6340  -39.4430   22.8500 O   0  0  0  0  0  0  0  0  0  0  0  0
  -23.4150  -39.8160   23.9770 C   0  0  0  0  0  0  0  0  0  0  0  0
  -22.7830  -39.9960   24.8540 H   0  0  0  0  0  0  0  0  0  0  0  0
  -23.9230  -40.7540   23.7350 H   0  0  0  0  0  0  0  0  0  0  0  0
  -24.1850  -39.0670   24.1900 H   0  0  0  0  0  0  0  0  0  0  0  0
  -21.2310  -38.6430   20.7920 O   0  0  0  0  0  0  0  0  0  0  0  0
  -20.7850  -38.6120   19.4450 C   0  0  0  0  0  0  0  0  0  0  0  0
  -20.4060  -37.6060   19.2410 H   0  0  0  0  0  0  0  0  0  0  0  0
  -19.9610  -39.3150   19.2850 H   0  0  0  0  0  0  0  0  0  0  0  0
  -21.6090  -38.8030   18.7500 H   0  0  0  0  0  0  0  0  0  0  0  0
  -13.0430  -45.8420   27.3310 C   0  0  0  0  0  0  0  0  0  0  0  0
  -12.4210  -46.2060   26.5030 H   0  0  0  0  0  0  0  0  0  0  0  0
  -13.9070  -46.5160   27.3860 H   0  0  0  0  0  0  0  0  0  0  0  0
  -12.1940  -45.9720   28.5800 C   0  0  0  0  0  0  0  0  0  0  0  0
  -10.8030  -46.1240   28.4880 C   0  0  0  0  0  0  0  0  0  0  0  0
  -10.0240  -46.2300   29.6430 C   0  0  0  0  0  0  0  0  0  0  0  0
  -10.6270  -46.1830   30.8990 C   0  0  0  0  0  0  0  0  0  0  0  0
  -12.0080  -46.0290   31.0040 C   0  0  0  0  0  0  0  0  0  0  0  0
  -12.7870  -45.9230   29.8510 C   0  0  0  0  0  0  0  0  0  0  0  0
  -10.3180  -46.1640   27.5170 H   0  0  0  0  0  0  0  0  0  0  0  0
   -8.9480  -46.3500   29.5620 H   0  0  0  0  0  0  0  0  0  0  0  0
  -10.0210  -46.2670   31.7970 H   0  0  0  0  0  0  0  0  0  0  0  0
  -12.4800  -45.9970   31.9820 H   0  0  0  0  0  0  0  0  0  0  0  0
  -13.8660  -45.8120   29.9400 H   0  0  0  0  0  0  0  0  0  0  0  0
  1  2  1  0  0  0  0
  2  8  1  0  0  0  0
  2  9  1  0  0  0  0
  2  3  1  0  0  0  0
  3 11  1  0  0  0  0
  4 44  1  0  0  0  0
  4  3  1  0  0  0  0
  5  4  1  0  0  0  0
  6 14  1  0  0  0  0
  6  1  1  0  0  0  0
  6  5  1  0  0  0  0
  7  1  1  0  0  0  0
 10  3  1  0  0  0  0
 12  5  1  0  0  0  0
 13  5  1  0  0  0  0
 15  6  1  0  0  0  0
 16 18  1  0  0  0  0
 16  1  1  0  0  0  0
 17 16  1  0  0  0  0
 19 24  1  0  0  0  0
 20 19  2  0  0  0  0
 20 21  1  0  0  0  0
 21 28  1  0  0  0  0
 21 22  2  0  0  0  0
 22 23  1  0  0  0  0
 22 25  1  0  0  0  0
 23 30  1  0  0  0  0
 24 34  1  0  0  0  0
 24 23  2  0  0  0  0
 25 26  2  0  0  0  0
 27 31  1  6  0  0  0
 27 25  1  0  0  0  0
 27 16  1  0  0  0  0
 28 32  1  0  0  0  0
 28 27  1  0  0  0  0
 29 20  1  0  0  0  0
 33 28  1  0  0  0  0
 34 35  1  0  0  0  0
 35 38  1  0  0  0  0
 35 36  1  0  0  0  0
 37 35  1  0  0  0  0
 39 19  1  0  0  0  0
 40 39  1  0  0  0  0
 41 40  1  0  0  0  0
 42 40  1  0  0  0  0
 43 40  1  0  0  0  0
 44 46  1  0  0  0  0
 44 47  1  0  0  0  0
 45 44  1  0  0  0  0
 47 52  1  0  0  0  0
 48 47  2  0  0  0  0
 48 49  1  0  0  0  0
 49 50  2  0  0  0  0
 50 51  1  0  0  0  0
 50 55  1  0  0  0  0
 51 56  1  0  0  0  0
 52 57  1  0  0  0  0
 52 51  2  0  0  0  0
 53 48  1  0  0  0  0
 54 49  1  0  0  0  0
M  END
>  <MODEL>
9

>  <REMARK>
 VINA RESULT:      -9.3      2.318      4.487
  Name = /var/folders/3g/ssls5xnd04j53z04wfdyd3940000gn/T/tmputnqxluy.pdb
  8 active torsions:
  status: ('A' for Active; 'I' for Inactive)
    1  A    between atoms: C1_1  and  O1_2
    2  A    between atoms: O1_2  and  C2_3
    3  A    between atoms: C7_8  and  O2_9
    4  A    between atoms: O2_9  and  C8_10
    5  A    between atoms: C10_13  and  C11_14
    6  A    between atoms: C11_14  and  C12_15
    7  A    between atoms: N1_18  and  C15_19
    8  A    between atoms: C15_19  and  C16_20
                            x       y       z     vdW  Elec       q    Type
                         _______ _______ _______ _____ _____    ______ ____

>  <TORSDO>
F 8

$$$$
